iidm/iidm-xml-converter/src/test/resources/V1_1/multiple-extensions-ext.xiidm
<?xml version="1.0" encoding="UTF-8"?>
<iidm:network xmlns:iidm="http://www.itesla_project.eu/schema/iidm/1_1" id="test" caseDate="2017-11-17T12:00:00.000+01:00" forecastDistance="0" sourceFormat="test" xmlns:bar="http://www.itesla_project.eu/schema/iidm/ext/loadbar/1_0" xmlns:foo="http://www.itesla_project.eu/schema/iidm/ext/loadfoo/1_0">
    <iidm:extension id="LOAD">
        <foo:loadFoo/>
        <bar:loadBar/>
    </iidm:extension>
    <iidm:extension id="LOAD2">
        <foo:loadFoo/>
    </iidm:extension>
</iidm:network>
